* NGSPICE file created from dig_ctrl_top.ext - technology: sky130A

* Black-box entry subcircuit for sky130_fd_sc_hd__and2_2 abstract view
.subckt sky130_fd_sc_hd__and2_2 A B VGND VNB VPB VPWR X
.ends

* Black-box entry subcircuit for sky130_fd_sc_hd__dlclkp_1 abstract view
.subckt sky130_fd_sc_hd__dlclkp_1 CLK GATE VGND VNB VPB VPWR GCLK
.ends

* Black-box entry subcircuit for sky130_fd_sc_hd__or4_2 abstract view
.subckt sky130_fd_sc_hd__or4_2 A B C D VGND VNB VPB VPWR X
.ends

* Black-box entry subcircuit for sky130_fd_sc_hd__dlxtp_1 abstract view
.subckt sky130_fd_sc_hd__dlxtp_1 D GATE VGND VNB VPB VPWR Q
.ends

* Black-box entry subcircuit for sky130_fd_sc_hd__fill_1 abstract view
.subckt sky130_fd_sc_hd__fill_1 VGND VNB VPB VPWR
.ends

* Black-box entry subcircuit for sky130_fd_sc_hd__decap_3 abstract view
.subckt sky130_fd_sc_hd__decap_3 VGND VNB VPB VPWR
.ends

* Black-box entry subcircuit for sky130_fd_sc_hd__tapvpwrvgnd_1 abstract view
.subckt sky130_fd_sc_hd__tapvpwrvgnd_1 VGND VPWR
.ends

* Black-box entry subcircuit for sky130_fd_sc_hd__buf_2 abstract view
.subckt sky130_fd_sc_hd__buf_2 A VGND VNB VPB VPWR X
.ends

* Black-box entry subcircuit for sky130_fd_sc_hd__decap_6 abstract view
.subckt sky130_fd_sc_hd__decap_6 VGND VNB VPB VPWR
.ends

* Black-box entry subcircuit for sky130_fd_sc_hd__o41a_4 abstract view
.subckt sky130_fd_sc_hd__o41a_4 A1 A2 A3 A4 B1 VGND VNB VPB VPWR X
.ends

* Black-box entry subcircuit for sky130_fd_sc_hd__or4_1 abstract view
.subckt sky130_fd_sc_hd__or4_1 A B C D VGND VNB VPB VPWR X
.ends

* Black-box entry subcircuit for sky130_fd_sc_hd__and2_1 abstract view
.subckt sky130_fd_sc_hd__and2_1 A B VGND VNB VPB VPWR X
.ends

* Black-box entry subcircuit for sky130_fd_sc_hd__clkbuf_2 abstract view
.subckt sky130_fd_sc_hd__clkbuf_2 A VGND VNB VPB VPWR X
.ends

* Black-box entry subcircuit for sky130_fd_sc_hd__buf_4 abstract view
.subckt sky130_fd_sc_hd__buf_4 A VGND VNB VPB VPWR X
.ends

* Black-box entry subcircuit for sky130_fd_sc_hd__dlymetal6s2s_1 abstract view
.subckt sky130_fd_sc_hd__dlymetal6s2s_1 A VGND VNB VPB VPWR X
.ends

* Black-box entry subcircuit for sky130_fd_sc_hd__nor2_1 abstract view
.subckt sky130_fd_sc_hd__nor2_1 A B VGND VNB VPB VPWR Y
.ends

* Black-box entry subcircuit for sky130_fd_sc_hd__fill_2 abstract view
.subckt sky130_fd_sc_hd__fill_2 VGND VNB VPB VPWR
.ends

* Black-box entry subcircuit for sky130_fd_sc_hd__decap_4 abstract view
.subckt sky130_fd_sc_hd__decap_4 VGND VNB VPB VPWR
.ends

* Black-box entry subcircuit for sky130_fd_sc_hd__dfrtp_1 abstract view
.subckt sky130_fd_sc_hd__dfrtp_1 CLK D RESET_B VGND VNB VPB VPWR Q
.ends

* Black-box entry subcircuit for sky130_fd_sc_hd__and2b_1 abstract view
.subckt sky130_fd_sc_hd__and2b_1 A_N B VGND VNB VPB VPWR X
.ends

* Black-box entry subcircuit for sky130_fd_sc_hd__a22o_1 abstract view
.subckt sky130_fd_sc_hd__a22o_1 A1 A2 B1 B2 VGND VNB VPB VPWR X
.ends

* Black-box entry subcircuit for sky130_fd_sc_hd__and3_2 abstract view
.subckt sky130_fd_sc_hd__and3_2 A B C VGND VNB VPB VPWR X
.ends

* Black-box entry subcircuit for sky130_ef_sc_hd__decap_12 abstract view
.subckt sky130_ef_sc_hd__decap_12 VPWR VGND VPB VNB
.ends

* Black-box entry subcircuit for sky130_fd_sc_hd__nor4_2 abstract view
.subckt sky130_fd_sc_hd__nor4_2 A B C D VGND VNB VPB VPWR Y
.ends

* Black-box entry subcircuit for sky130_fd_sc_hd__mux2_1 abstract view
.subckt sky130_fd_sc_hd__mux2_1 A0 A1 S VGND VNB VPB VPWR X
.ends

* Black-box entry subcircuit for sky130_fd_sc_hd__a21o_1 abstract view
.subckt sky130_fd_sc_hd__a21o_1 A1 A2 B1 VGND VNB VPB VPWR X
.ends

* Black-box entry subcircuit for sky130_fd_sc_hd__or4b_4 abstract view
.subckt sky130_fd_sc_hd__or4b_4 A B C D_N VGND VNB VPB VPWR X
.ends

* Black-box entry subcircuit for sky130_fd_sc_hd__a2111o_1 abstract view
.subckt sky130_fd_sc_hd__a2111o_1 A1 A2 B1 C1 D1 VGND VNB VPB VPWR X
.ends

* Black-box entry subcircuit for sky130_fd_sc_hd__o22a_2 abstract view
.subckt sky130_fd_sc_hd__o22a_2 A1 A2 B1 B2 VGND VNB VPB VPWR X
.ends

* Black-box entry subcircuit for sky130_fd_sc_hd__o21a_1 abstract view
.subckt sky130_fd_sc_hd__o21a_1 A1 A2 B1 VGND VNB VPB VPWR X
.ends

* Black-box entry subcircuit for sky130_fd_sc_hd__o221a_1 abstract view
.subckt sky130_fd_sc_hd__o221a_1 A1 A2 B1 B2 C1 VGND VNB VPB VPWR X
.ends

* Black-box entry subcircuit for sky130_fd_sc_hd__dlygate4sd3_1 abstract view
.subckt sky130_fd_sc_hd__dlygate4sd3_1 A VGND VNB VPB VPWR X
.ends

* Black-box entry subcircuit for sky130_fd_sc_hd__a32o_1 abstract view
.subckt sky130_fd_sc_hd__a32o_1 A1 A2 A3 B1 B2 VGND VNB VPB VPWR X
.ends

* Black-box entry subcircuit for sky130_fd_sc_hd__diode_2 abstract view
.subckt sky130_fd_sc_hd__diode_2 DIODE VGND VNB VPB VPWR
.ends

* Black-box entry subcircuit for sky130_fd_sc_hd__dlygate4sd1_1 abstract view
.subckt sky130_fd_sc_hd__dlygate4sd1_1 A VGND VNB VPB VPWR X
.ends

* Black-box entry subcircuit for sky130_fd_sc_hd__clkbuf_4 abstract view
.subckt sky130_fd_sc_hd__clkbuf_4 A VGND VNB VPB VPWR X
.ends

* Black-box entry subcircuit for sky130_fd_sc_hd__o211a_1 abstract view
.subckt sky130_fd_sc_hd__o211a_1 A1 A2 B1 C1 VGND VNB VPB VPWR X
.ends

* Black-box entry subcircuit for sky130_fd_sc_hd__conb_1 abstract view
.subckt sky130_fd_sc_hd__conb_1 VGND VNB VPB VPWR HI LO
.ends

* Black-box entry subcircuit for sky130_fd_sc_hd__and4_1 abstract view
.subckt sky130_fd_sc_hd__and4_1 A B C D VGND VNB VPB VPWR X
.ends

* Black-box entry subcircuit for sky130_fd_sc_hd__nand3b_1 abstract view
.subckt sky130_fd_sc_hd__nand3b_1 A_N B C VGND VNB VPB VPWR Y
.ends

* Black-box entry subcircuit for sky130_fd_sc_hd__dlymetal6s4s_1 abstract view
.subckt sky130_fd_sc_hd__dlymetal6s4s_1 A VGND VNB VPB VPWR X
.ends

* Black-box entry subcircuit for sky130_fd_sc_hd__nand2_1 abstract view
.subckt sky130_fd_sc_hd__nand2_1 A B VGND VNB VPB VPWR Y
.ends

* Black-box entry subcircuit for sky130_fd_sc_hd__decap_8 abstract view
.subckt sky130_fd_sc_hd__decap_8 VGND VNB VPB VPWR
.ends

* Black-box entry subcircuit for sky130_fd_sc_hd__and3_4 abstract view
.subckt sky130_fd_sc_hd__and3_4 A B C VGND VNB VPB VPWR X
.ends

* Black-box entry subcircuit for sky130_fd_sc_hd__a221o_1 abstract view
.subckt sky130_fd_sc_hd__a221o_1 A1 A2 B1 B2 C1 VGND VNB VPB VPWR X
.ends

* Black-box entry subcircuit for sky130_fd_sc_hd__or3_1 abstract view
.subckt sky130_fd_sc_hd__or3_1 A B C VGND VNB VPB VPWR X
.ends

* Black-box entry subcircuit for sky130_fd_sc_hd__nand4_4 abstract view
.subckt sky130_fd_sc_hd__nand4_4 A B C D VGND VNB VPB VPWR Y
.ends

* Black-box entry subcircuit for sky130_fd_sc_hd__nand2b_1 abstract view
.subckt sky130_fd_sc_hd__nand2b_1 A_N B VGND VNB VPB VPWR Y
.ends

* Black-box entry subcircuit for sky130_fd_sc_hd__inv_2 abstract view
.subckt sky130_fd_sc_hd__inv_2 A VGND VNB VPB VPWR Y
.ends

* Black-box entry subcircuit for sky130_fd_sc_hd__a21oi_1 abstract view
.subckt sky130_fd_sc_hd__a21oi_1 A1 A2 B1 VGND VNB VPB VPWR Y
.ends

* Black-box entry subcircuit for sky130_fd_sc_hd__o21ai_1 abstract view
.subckt sky130_fd_sc_hd__o21ai_1 A1 A2 B1 VGND VNB VPB VPWR Y
.ends

* Black-box entry subcircuit for sky130_fd_sc_hd__o31a_1 abstract view
.subckt sky130_fd_sc_hd__o31a_1 A1 A2 A3 B1 VGND VNB VPB VPWR X
.ends

* Black-box entry subcircuit for sky130_fd_sc_hd__clkbuf_1 abstract view
.subckt sky130_fd_sc_hd__clkbuf_1 A VGND VNB VPB VPWR X
.ends

* Black-box entry subcircuit for sky130_fd_sc_hd__nand3_1 abstract view
.subckt sky130_fd_sc_hd__nand3_1 A B C VGND VNB VPB VPWR Y
.ends

* Black-box entry subcircuit for sky130_fd_sc_hd__and3b_1 abstract view
.subckt sky130_fd_sc_hd__and3b_1 A_N B C VGND VNB VPB VPWR X
.ends

* Black-box entry subcircuit for sky130_fd_sc_hd__and2_4 abstract view
.subckt sky130_fd_sc_hd__and2_4 A B VGND VNB VPB VPWR X
.ends

* Black-box entry subcircuit for sky130_fd_sc_hd__nand2_4 abstract view
.subckt sky130_fd_sc_hd__nand2_4 A B VGND VNB VPB VPWR Y
.ends

* Black-box entry subcircuit for sky130_fd_sc_hd__a211o_1 abstract view
.subckt sky130_fd_sc_hd__a211o_1 A1 A2 B1 C1 VGND VNB VPB VPWR X
.ends

* Black-box entry subcircuit for sky130_fd_sc_hd__o22a_1 abstract view
.subckt sky130_fd_sc_hd__o22a_1 A1 A2 B1 B2 VGND VNB VPB VPWR X
.ends

* Black-box entry subcircuit for sky130_fd_sc_hd__nand2b_2 abstract view
.subckt sky130_fd_sc_hd__nand2b_2 A_N B VGND VNB VPB VPWR Y
.ends

* Black-box entry subcircuit for sky130_fd_sc_hd__mux4_1 abstract view
.subckt sky130_fd_sc_hd__mux4_1 A0 A1 A2 A3 S0 S1 VGND VNB VPB VPWR X
.ends

* Black-box entry subcircuit for sky130_fd_sc_hd__or4_4 abstract view
.subckt sky130_fd_sc_hd__or4_4 A B C D VGND VNB VPB VPWR X
.ends

* Black-box entry subcircuit for sky130_fd_sc_hd__a31o_1 abstract view
.subckt sky130_fd_sc_hd__a31o_1 A1 A2 A3 B1 VGND VNB VPB VPWR X
.ends

* Black-box entry subcircuit for sky130_fd_sc_hd__or2_1 abstract view
.subckt sky130_fd_sc_hd__or2_1 A B VGND VNB VPB VPWR X
.ends

* Black-box entry subcircuit for sky130_fd_sc_hd__o211a_4 abstract view
.subckt sky130_fd_sc_hd__o211a_4 A1 A2 B1 C1 VGND VNB VPB VPWR X
.ends

* Black-box entry subcircuit for sky130_fd_sc_hd__xnor2_1 abstract view
.subckt sky130_fd_sc_hd__xnor2_1 A B VGND VNB VPB VPWR Y
.ends

* Black-box entry subcircuit for sky130_fd_sc_hd__o211a_2 abstract view
.subckt sky130_fd_sc_hd__o211a_2 A1 A2 B1 C1 VGND VNB VPB VPWR X
.ends

* Black-box entry subcircuit for sky130_fd_sc_hd__or3b_1 abstract view
.subckt sky130_fd_sc_hd__or3b_1 A B C_N VGND VNB VPB VPWR X
.ends

* Black-box entry subcircuit for sky130_fd_sc_hd__a22oi_1 abstract view
.subckt sky130_fd_sc_hd__a22oi_1 A1 A2 B1 B2 VGND VNB VPB VPWR Y
.ends

* Black-box entry subcircuit for sky130_fd_sc_hd__clkbuf_8 abstract view
.subckt sky130_fd_sc_hd__clkbuf_8 A VGND VNB VPB VPWR X
.ends

* Black-box entry subcircuit for sky130_fd_sc_hd__a2111oi_2 abstract view
.subckt sky130_fd_sc_hd__a2111oi_2 A1 A2 B1 C1 D1 VGND VNB VPB VPWR Y
.ends

* Black-box entry subcircuit for sky130_fd_sc_hd__inv_8 abstract view
.subckt sky130_fd_sc_hd__inv_8 A VGND VNB VPB VPWR Y
.ends

* Black-box entry subcircuit for sky130_fd_sc_hd__dfrtp_4 abstract view
.subckt sky130_fd_sc_hd__dfrtp_4 CLK D RESET_B VGND VNB VPB VPWR Q
.ends

* Black-box entry subcircuit for sky130_fd_sc_hd__o21ba_1 abstract view
.subckt sky130_fd_sc_hd__o21ba_1 A1 A2 B1_N VGND VNB VPB VPWR X
.ends

* Black-box entry subcircuit for sky130_fd_sc_hd__o22a_4 abstract view
.subckt sky130_fd_sc_hd__o22a_4 A1 A2 B1 B2 VGND VNB VPB VPWR X
.ends

* Black-box entry subcircuit for sky130_fd_sc_hd__dlxtn_1 abstract view
.subckt sky130_fd_sc_hd__dlxtn_1 D GATE_N VGND VNB VPB VPWR Q
.ends

* Black-box entry subcircuit for sky130_fd_sc_hd__nor3b_2 abstract view
.subckt sky130_fd_sc_hd__nor3b_2 A B C_N VGND VNB VPB VPWR Y
.ends

* Black-box entry subcircuit for sky130_fd_sc_hd__inv_16 abstract view
.subckt sky130_fd_sc_hd__inv_16 A VGND VNB VPB VPWR Y
.ends

* Black-box entry subcircuit for sky130_fd_sc_hd__o32a_4 abstract view
.subckt sky130_fd_sc_hd__o32a_4 A1 A2 A3 B1 B2 VGND VNB VPB VPWR X
.ends

* Black-box entry subcircuit for sky130_fd_sc_hd__or2_2 abstract view
.subckt sky130_fd_sc_hd__or2_2 A B VGND VNB VPB VPWR X
.ends

* Black-box entry subcircuit for sky130_fd_sc_hd__o311a_1 abstract view
.subckt sky130_fd_sc_hd__o311a_1 A1 A2 A3 B1 C1 VGND VNB VPB VPWR X
.ends

* Black-box entry subcircuit for sky130_fd_sc_hd__o32a_1 abstract view
.subckt sky130_fd_sc_hd__o32a_1 A1 A2 A3 B1 B2 VGND VNB VPB VPWR X
.ends

* Black-box entry subcircuit for sky130_fd_sc_hd__buf_6 abstract view
.subckt sky130_fd_sc_hd__buf_6 A VGND VNB VPB VPWR X
.ends

* Black-box entry subcircuit for sky130_fd_sc_hd__nor3b_1 abstract view
.subckt sky130_fd_sc_hd__nor3b_1 A B C_N VGND VNB VPB VPWR Y
.ends

* Black-box entry subcircuit for sky130_fd_sc_hd__inv_12 abstract view
.subckt sky130_fd_sc_hd__inv_12 A VGND VNB VPB VPWR Y
.ends

* Black-box entry subcircuit for sky130_fd_sc_hd__o2bb2a_1 abstract view
.subckt sky130_fd_sc_hd__o2bb2a_1 A1_N A2_N B1 B2 VGND VNB VPB VPWR X
.ends

* Black-box entry subcircuit for sky130_fd_sc_hd__or3b_4 abstract view
.subckt sky130_fd_sc_hd__or3b_4 A B C_N VGND VNB VPB VPWR X
.ends

* Black-box entry subcircuit for sky130_fd_sc_hd__buf_1 abstract view
.subckt sky130_fd_sc_hd__buf_1 A VGND VNB VPB VPWR X
.ends

* Black-box entry subcircuit for sky130_fd_sc_hd__clkinv_8 abstract view
.subckt sky130_fd_sc_hd__clkinv_8 A VGND VNB VPB VPWR Y
.ends

* Black-box entry subcircuit for sky130_fd_sc_hd__o41a_2 abstract view
.subckt sky130_fd_sc_hd__o41a_2 A1 A2 A3 A4 B1 VGND VNB VPB VPWR X
.ends

* Black-box entry subcircuit for sky130_fd_sc_hd__clkbuf_16 abstract view
.subckt sky130_fd_sc_hd__clkbuf_16 A VGND VNB VPB VPWR X
.ends

* Black-box entry subcircuit for sky130_fd_sc_hd__a21bo_1 abstract view
.subckt sky130_fd_sc_hd__a21bo_1 A1 A2 B1_N VGND VNB VPB VPWR X
.ends

* Black-box entry subcircuit for sky130_fd_sc_hd__clkinv_4 abstract view
.subckt sky130_fd_sc_hd__clkinv_4 A VGND VNB VPB VPWR Y
.ends

* Black-box entry subcircuit for sky130_fd_sc_hd__a22oi_2 abstract view
.subckt sky130_fd_sc_hd__a22oi_2 A1 A2 B1 B2 VGND VNB VPB VPWR Y
.ends

* Black-box entry subcircuit for sky130_fd_sc_hd__xor2_1 abstract view
.subckt sky130_fd_sc_hd__xor2_1 A B VGND VNB VPB VPWR X
.ends

* Black-box entry subcircuit for sky130_fd_sc_hd__bufinv_16 abstract view
.subckt sky130_fd_sc_hd__bufinv_16 A VGND VNB VPB VPWR Y
.ends

* Black-box entry subcircuit for sky130_fd_sc_hd__a311o_1 abstract view
.subckt sky130_fd_sc_hd__a311o_1 A1 A2 A3 B1 C1 VGND VNB VPB VPWR X
.ends

* Black-box entry subcircuit for sky130_fd_sc_hd__o22ai_1 abstract view
.subckt sky130_fd_sc_hd__o22ai_1 A1 A2 B1 B2 VGND VNB VPB VPWR Y
.ends

* Black-box entry subcircuit for sky130_fd_sc_hd__a2111oi_1 abstract view
.subckt sky130_fd_sc_hd__a2111oi_1 A1 A2 B1 C1 D1 VGND VNB VPB VPWR Y
.ends

* Black-box entry subcircuit for sky130_fd_sc_hd__inv_6 abstract view
.subckt sky130_fd_sc_hd__inv_6 A VGND VNB VPB VPWR Y
.ends

* Black-box entry subcircuit for sky130_fd_sc_hd__a2bb2o_1 abstract view
.subckt sky130_fd_sc_hd__a2bb2o_1 A1_N A2_N B1 B2 VGND VNB VPB VPWR X
.ends

* Black-box entry subcircuit for sky130_fd_sc_hd__dfxtp_1 abstract view
.subckt sky130_fd_sc_hd__dfxtp_1 CLK D VGND VNB VPB VPWR Q
.ends

* Black-box entry subcircuit for sky130_fd_sc_hd__and4b_1 abstract view
.subckt sky130_fd_sc_hd__and4b_1 A_N B C D VGND VNB VPB VPWR X
.ends

* Black-box entry subcircuit for sky130_fd_sc_hd__clkinv_16 abstract view
.subckt sky130_fd_sc_hd__clkinv_16 A VGND VNB VPB VPWR Y
.ends

* Black-box entry subcircuit for sky130_fd_sc_hd__nor4_1 abstract view
.subckt sky130_fd_sc_hd__nor4_1 A B C D VGND VNB VPB VPWR Y
.ends

* Black-box entry subcircuit for sky130_fd_sc_hd__or4b_1 abstract view
.subckt sky130_fd_sc_hd__or4b_1 A B C D_N VGND VNB VPB VPWR X
.ends

* Black-box entry subcircuit for sky130_fd_sc_hd__or2_4 abstract view
.subckt sky130_fd_sc_hd__or2_4 A B VGND VNB VPB VPWR X
.ends

* Black-box entry subcircuit for sky130_fd_sc_hd__o2111a_1 abstract view
.subckt sky130_fd_sc_hd__o2111a_1 A1 A2 B1 C1 D1 VGND VNB VPB VPWR X
.ends

* Black-box entry subcircuit for sky130_fd_sc_hd__o32ai_4 abstract view
.subckt sky130_fd_sc_hd__o32ai_4 A1 A2 A3 B1 B2 VGND VNB VPB VPWR Y
.ends

* Black-box entry subcircuit for sky130_fd_sc_hd__nor2_2 abstract view
.subckt sky130_fd_sc_hd__nor2_2 A B VGND VNB VPB VPWR Y
.ends

* Black-box entry subcircuit for sky130_fd_sc_hd__o211ai_1 abstract view
.subckt sky130_fd_sc_hd__o211ai_1 A1 A2 B1 C1 VGND VNB VPB VPWR Y
.ends

* Black-box entry subcircuit for sky130_fd_sc_hd__o41ai_2 abstract view
.subckt sky130_fd_sc_hd__o41ai_2 A1 A2 A3 A4 B1 VGND VNB VPB VPWR Y
.ends

* Black-box entry subcircuit for sky130_fd_sc_hd__a221o_2 abstract view
.subckt sky130_fd_sc_hd__a221o_2 A1 A2 B1 B2 C1 VGND VNB VPB VPWR X
.ends

* Black-box entry subcircuit for sky130_fd_sc_hd__a31oi_1 abstract view
.subckt sky130_fd_sc_hd__a31oi_1 A1 A2 A3 B1 VGND VNB VPB VPWR Y
.ends

* Black-box entry subcircuit for sky130_fd_sc_hd__o221ai_4 abstract view
.subckt sky130_fd_sc_hd__o221ai_4 A1 A2 B1 B2 C1 VGND VNB VPB VPWR Y
.ends

* Black-box entry subcircuit for sky130_fd_sc_hd__o21bai_1 abstract view
.subckt sky130_fd_sc_hd__o21bai_1 A1 A2 B1_N VGND VNB VPB VPWR Y
.ends

* Black-box entry subcircuit for sky130_fd_sc_hd__a221oi_4 abstract view
.subckt sky130_fd_sc_hd__a221oi_4 A1 A2 B1 B2 C1 VGND VNB VPB VPWR Y
.ends

* Black-box entry subcircuit for sky130_fd_sc_hd__nor3_4 abstract view
.subckt sky130_fd_sc_hd__nor3_4 A B C VGND VNB VPB VPWR Y
.ends

* Black-box entry subcircuit for sky130_fd_sc_hd__nor2_4 abstract view
.subckt sky130_fd_sc_hd__nor2_4 A B VGND VNB VPB VPWR Y
.ends

* Black-box entry subcircuit for sky130_fd_sc_hd__o41a_1 abstract view
.subckt sky130_fd_sc_hd__o41a_1 A1 A2 A3 A4 B1 VGND VNB VPB VPWR X
.ends

* Black-box entry subcircuit for sky130_fd_sc_hd__dfrtp_2 abstract view
.subckt sky130_fd_sc_hd__dfrtp_2 CLK D RESET_B VGND VNB VPB VPWR Q
.ends

* Black-box entry subcircuit for sky130_fd_sc_hd__and4bb_4 abstract view
.subckt sky130_fd_sc_hd__and4bb_4 A_N B_N C D VGND VNB VPB VPWR X
.ends

* Black-box entry subcircuit for sky130_fd_sc_hd__and4_4 abstract view
.subckt sky130_fd_sc_hd__and4_4 A B C D VGND VNB VPB VPWR X
.ends

* Black-box entry subcircuit for sky130_fd_sc_hd__o221ai_1 abstract view
.subckt sky130_fd_sc_hd__o221ai_1 A1 A2 B1 B2 C1 VGND VNB VPB VPWR Y
.ends

* Black-box entry subcircuit for sky130_fd_sc_hd__a211oi_1 abstract view
.subckt sky130_fd_sc_hd__a211oi_1 A1 A2 B1 C1 VGND VNB VPB VPWR Y
.ends

* Black-box entry subcircuit for sky130_fd_sc_hd__dlxtn_2 abstract view
.subckt sky130_fd_sc_hd__dlxtn_2 D GATE_N VGND VNB VPB VPWR Q
.ends

* Black-box entry subcircuit for sky130_fd_sc_hd__nand3_2 abstract view
.subckt sky130_fd_sc_hd__nand3_2 A B C VGND VNB VPB VPWR Y
.ends

* Black-box entry subcircuit for sky130_fd_sc_hd__buf_8 abstract view
.subckt sky130_fd_sc_hd__buf_8 A VGND VNB VPB VPWR X
.ends

* Black-box entry subcircuit for sky130_fd_sc_hd__o41ai_4 abstract view
.subckt sky130_fd_sc_hd__o41ai_4 A1 A2 A3 A4 B1 VGND VNB VPB VPWR Y
.ends

* Black-box entry subcircuit for sky130_fd_sc_hd__o211ai_2 abstract view
.subckt sky130_fd_sc_hd__o211ai_2 A1 A2 B1 C1 VGND VNB VPB VPWR Y
.ends

* Black-box entry subcircuit for sky130_fd_sc_hd__nand2_2 abstract view
.subckt sky130_fd_sc_hd__nand2_2 A B VGND VNB VPB VPWR Y
.ends

* Black-box entry subcircuit for sky130_fd_sc_hd__and4bb_1 abstract view
.subckt sky130_fd_sc_hd__and4bb_1 A_N B_N C D VGND VNB VPB VPWR X
.ends

* Black-box entry subcircuit for sky130_fd_sc_hd__or3_4 abstract view
.subckt sky130_fd_sc_hd__or3_4 A B C VGND VNB VPB VPWR X
.ends

* Black-box entry subcircuit for sky130_fd_sc_hd__o2111ai_1 abstract view
.subckt sky130_fd_sc_hd__o2111ai_1 A1 A2 B1 C1 D1 VGND VNB VPB VPWR Y
.ends

* Black-box entry subcircuit for sky130_fd_sc_hd__and3b_4 abstract view
.subckt sky130_fd_sc_hd__and3b_4 A_N B C VGND VNB VPB VPWR X
.ends

* Black-box entry subcircuit for sky130_fd_sc_hd__nor3b_4 abstract view
.subckt sky130_fd_sc_hd__nor3b_4 A B C_N VGND VNB VPB VPWR Y
.ends

* Black-box entry subcircuit for sky130_fd_sc_hd__a2111oi_4 abstract view
.subckt sky130_fd_sc_hd__a2111oi_4 A1 A2 B1 C1 D1 VGND VNB VPB VPWR Y
.ends

.subckt dig_ctrl_top VDPWR VGND clk clk_o ena port_ms_i port_ms_o[0] port_ms_o[1]
+ port_ms_o[2] port_ms_o[3] port_ms_o[4] port_ms_o[5] port_ms_o[6] port_ms_o[7] rst_n
+ ui_in[0] ui_in[1] ui_in[2] ui_in[3] ui_in[4] ui_in[5] ui_in[6] ui_in[7] uio_in[0]
+ uio_in[1] uio_in[2] uio_in[3] uio_in[4] uio_in[5] uio_in[6] uio_in[7] uio_oe[0]
+ uio_oe[1] uio_oe[2] uio_oe[3] uio_oe[4] uio_oe[5] uio_oe[6] uio_oe[7] uio_out[0]
+ uio_out[1] uio_out[2] uio_out[3] uio_out[4] uio_out[5] uio_out[6] uio_out[7] uo_out[0]
+ uo_out[1] uo_out[2] uo_out[3] uo_out[4] uo_out[5] uo_out[6] uo_out[7]
X_2037_ _1010_ _0200_ VGND VGND VDPWR VDPWR _0741_ sky130_fd_sc_hd__and2_2
Xdig_ctrl_inst.latch_mem_inst.gen_gclk\[46\].clock_gate clknet_leaf_16_clk dig_ctrl_inst.latch_mem_inst.data_we\[46\]
+ VGND VGND VDPWR VDPWR dig_ctrl_inst.latch_mem_inst.gen_gclk\[46\]._gclk sky130_fd_sc_hd__dlclkp_1
X_2106_ dig_ctrl_inst.cpu_inst.data\[5\] dig_ctrl_inst.cpu_inst.data\[4\] dig_ctrl_inst.cpu_inst.data\[7\]
+ dig_ctrl_inst.cpu_inst.data\[6\] VGND VGND VDPWR VDPWR _0799_ sky130_fd_sc_hd__or4_2
Xdig_ctrl_inst.latch_mem_inst.gen_words\[41\].gen_latches\[3\].p_latch net221 dig_ctrl_inst.latch_mem_inst.gclk\[41\]
+ VGND VGND VDPWR VDPWR dig_ctrl_inst.latch_mem_inst.RAM\[41\]\[3\] sky130_fd_sc_hd__dlxtp_1
XFILLER_0_43_70 VGND VGND VDPWR VDPWR sky130_fd_sc_hd__fill_1
XPHY_EDGE_ROW_15_Left_93 VGND VGND VDPWR VDPWR sky130_fd_sc_hd__decap_3
Xdig_ctrl_inst.latch_mem_inst.gen_words\[30\].gen_latches\[1\].p_latch net234 dig_ctrl_inst.latch_mem_inst.gclk\[30\]
+ VGND VGND VDPWR VDPWR dig_ctrl_inst.latch_mem_inst.RAM\[30\]\[1\] sky130_fd_sc_hd__dlxtp_1
XTAP_TAPCELL_ROW_68_570 VGND VDPWR sky130_fd_sc_hd__tapvpwrvgnd_1
XTAP_TAPCELL_ROW_51_470 VGND VDPWR sky130_fd_sc_hd__tapvpwrvgnd_1
Xrebuffer7 _1079_ VGND VGND VDPWR VDPWR net289 sky130_fd_sc_hd__buf_2
XFILLER_0_64_14 VGND VGND VDPWR VDPWR sky130_fd_sc_hd__decap_6
X_1270_ _1018_ _1116_ _1115_ _1114_ _1117_ VGND VGND VDPWR VDPWR _1118_ sky130_fd_sc_hd__o41a_4
XFILLER_0_58_188 VGND VGND VDPWR VDPWR sky130_fd_sc_hd__fill_1
Xdig_ctrl_inst.latch_mem_inst.gen_words\[56\].gen_latches\[6\].p_latch net196 dig_ctrl_inst.latch_mem_inst.gclk\[56\]
+ VGND VGND VDPWR VDPWR dig_ctrl_inst.latch_mem_inst.RAM\[56\]\[6\] sky130_fd_sc_hd__dlxtp_1
X_1606_ _0314_ _0315_ _0316_ _0317_ VGND VGND VDPWR VDPWR _0318_ sky130_fd_sc_hd__or4_1
XFILLER_0_14_203 VGND VGND VDPWR VDPWR sky130_fd_sc_hd__fill_1
X_1468_ _0194_ _0196_ VGND VGND VDPWR VDPWR _0009_ sky130_fd_sc_hd__and2_1
XTAP_TAPCELL_ROW_57_507 VGND VDPWR sky130_fd_sc_hd__tapvpwrvgnd_1
Xfanout127 _1128_ VGND VGND VDPWR VDPWR net127 sky130_fd_sc_hd__clkbuf_2
Xfanout138 _0227_ VGND VGND VDPWR VDPWR net138 sky130_fd_sc_hd__buf_2
Xfanout105 _1134_ VGND VGND VDPWR VDPWR net105 sky130_fd_sc_hd__buf_4
X_1399_ net148 _0154_ VGND VGND VDPWR VDPWR dig_ctrl_inst.latch_mem_inst.data_we\[57\]
+ sky130_fd_sc_hd__and2_1
Xfanout149 net151 VGND VGND VDPWR VDPWR net149 sky130_fd_sc_hd__dlymetal6s2s_1
Xfanout116 net117 VGND VGND VDPWR VDPWR net116 sky130_fd_sc_hd__buf_4
X_1537_ net171 net169 VGND VGND VDPWR VDPWR _0250_ sky130_fd_sc_hd__nor2_1
Xdig_ctrl_inst.latch_mem_inst.gen_words\[45\].gen_latches\[4\].p_latch net210 dig_ctrl_inst.latch_mem_inst.gclk\[45\]
+ VGND VGND VDPWR VDPWR dig_ctrl_inst.latch_mem_inst.RAM\[45\]\[4\] sky130_fd_sc_hd__dlxtp_1
XFILLER_0_64_125 VGND VGND VDPWR VDPWR sky130_fd_sc_hd__decap_3
XFILLER_0_52_309 VGND VGND VDPWR VDPWR sky130_fd_sc_hd__fill_2
XTAP_TAPCELL_ROW_40_407 VGND VDPWR sky130_fd_sc_hd__tapvpwrvgnd_1
Xdig_ctrl_inst.latch_mem_inst.gen_words\[34\].gen_latches\[2\].p_latch net227 dig_ctrl_inst.latch_mem_inst.gclk\[34\]
+ VGND VGND VDPWR VDPWR dig_ctrl_inst.latch_mem_inst.RAM\[34\]\[2\] sky130_fd_sc_hd__dlxtp_1
XPHY_EDGE_ROW_0_Left_78 VGND VGND VDPWR VDPWR sky130_fd_sc_hd__decap_3
XTAP_TAPCELL_ROW_5_195 VGND VDPWR sky130_fd_sc_hd__tapvpwrvgnd_1
XFILLER_0_18_29 VGND VGND VDPWR VDPWR sky130_fd_sc_hd__decap_4
Xdig_ctrl_inst.latch_mem_inst.gen_words\[23\].gen_latches\[0\].p_latch net247 dig_ctrl_inst.latch_mem_inst.gclk\[23\]
+ VGND VGND VDPWR VDPWR dig_ctrl_inst.latch_mem_inst.RAM\[23\]\[0\] sky130_fd_sc_hd__dlxtp_1
X_2440_ clknet_leaf_6_clk _0048_ net145 VGND VGND VDPWR VDPWR dig_ctrl_inst.cpu_inst.r0\[3\]
+ sky130_fd_sc_hd__dfrtp_1
XFILLER_0_55_169 VGND VGND VDPWR VDPWR sky130_fd_sc_hd__fill_1
XFILLER_0_51_320 VGND VGND VDPWR VDPWR sky130_fd_sc_hd__fill_2
XFILLER_0_59_69 VGND VGND VDPWR VDPWR sky130_fd_sc_hd__decap_4
X_1253_ net257 dig_ctrl_inst.cpu_inst.r1\[5\] VGND VGND VDPWR VDPWR _1101_ sky130_fd_sc_hd__and2b_1
X_2371_ net248 _0990_ _0995_ _0997_ VGND VGND VDPWR VDPWR _0111_ sky130_fd_sc_hd__a22o_1
X_1322_ net129 net66 VGND VGND VDPWR VDPWR _0119_ sky130_fd_sc_hd__and2_1
X_1184_ net260 net256 dig_ctrl_inst.cpu_inst.r3\[3\] VGND VGND VDPWR VDPWR _1032_
+ sky130_fd_sc_hd__and3_2
Xdig_ctrl_inst.latch_mem_inst.gen_words\[11\].gen_latches\[7\].p_latch net188 dig_ctrl_inst.latch_mem_inst.gclk\[11\]
+ VGND VGND VDPWR VDPWR dig_ctrl_inst.latch_mem_inst.RAM\[11\]\[7\] sky130_fd_sc_hd__dlxtp_1
XFILLER_0_46_136 VGND VGND VDPWR VDPWR sky130_fd_sc_hd__decap_4
XFILLER_0_6_233 VGND VGND VDPWR VDPWR sky130_fd_sc_hd__fill_2
Xdig_ctrl_inst.latch_mem_inst.gen_words\[5\].gen_latches\[0\].p_latch net243 dig_ctrl_inst.latch_mem_inst.gclk\[5\]
+ VGND VGND VDPWR VDPWR dig_ctrl_inst.latch_mem_inst.RAM\[5\]\[0\] sky130_fd_sc_hd__dlxtp_1
XPHY_EDGE_ROW_27_Left_105 VGND VGND VDPWR VDPWR sky130_fd_sc_hd__decap_3
Xdig_ctrl_inst.latch_mem_inst.gen_words\[49\].gen_latches\[5\].p_latch net199 dig_ctrl_inst.latch_mem_inst.gclk\[49\]
+ VGND VGND VDPWR VDPWR dig_ctrl_inst.latch_mem_inst.RAM\[49\]\[5\] sky130_fd_sc_hd__dlxtp_1
XTAP_TAPCELL_ROW_2_176 VGND VDPWR sky130_fd_sc_hd__tapvpwrvgnd_1
XPHY_EDGE_ROW_36_Left_114 VGND VGND VDPWR VDPWR sky130_fd_sc_hd__decap_3
Xdig_ctrl_inst.latch_mem_inst.gen_words\[38\].gen_latches\[3\].p_latch net216 dig_ctrl_inst.latch_mem_inst.gclk\[38\]
+ VGND VGND VDPWR VDPWR dig_ctrl_inst.latch_mem_inst.RAM\[38\]\[3\] sky130_fd_sc_hd__dlxtp_1
Xdig_ctrl_inst.latch_mem_inst.gen_words\[27\].gen_latches\[1\].p_latch net237 dig_ctrl_inst.latch_mem_inst.gclk\[27\]
+ VGND VGND VDPWR VDPWR dig_ctrl_inst.latch_mem_inst.RAM\[27\]\[1\] sky130_fd_sc_hd__dlxtp_1
XPHY_EDGE_ROW_45_Left_123 VGND VGND VDPWR VDPWR sky130_fd_sc_hd__decap_3
XFILLER_0_0_29 VDPWR VGND VDPWR VGND sky130_ef_sc_hd__decap_12
X_1940_ dig_ctrl_inst.latch_mem_inst.RAM\[30\]\[6\] net74 net70 VGND VGND VDPWR VDPWR
+ _0646_ sky130_fd_sc_hd__and3_2
X_1871_ _0577_ _0568_ _0570_ _0287_ VGND VGND VDPWR VDPWR _0578_ sky130_fd_sc_hd__nor4_2
XPHY_EDGE_ROW_54_Left_132 VGND VGND VDPWR VDPWR sky130_fd_sc_hd__decap_3
XFILLER_0_43_139 VGND VGND VDPWR VDPWR sky130_fd_sc_hd__decap_4
XFILLER_0_16_309 VGND VGND VDPWR VDPWR sky130_fd_sc_hd__decap_6
XFILLER_0_10_85 VGND VGND VDPWR VDPWR sky130_fd_sc_hd__decap_3
X_2423_ clknet_leaf_13_clk _0031_ net139 VGND VGND VDPWR VDPWR dig_ctrl_inst.cpu_inst.instr\[5\]
+ sky130_fd_sc_hd__dfrtp_1
X_2354_ dig_ctrl_inst.cpu_inst.port_o\[0\] net17 _0988_ VGND VGND VDPWR VDPWR _0103_
+ sky130_fd_sc_hd__mux2_1
XPHY_EDGE_ROW_63_Left_141 VGND VGND VDPWR VDPWR sky130_fd_sc_hd__decap_3
X_1236_ _1018_ _1082_ _1081_ _1080_ _1083_ VGND VGND VDPWR VDPWR _1084_ sky130_fd_sc_hd__o41a_4
X_2285_ _0752_ _0830_ _0833_ VGND VGND VDPWR VDPWR _0969_ sky130_fd_sc_hd__a21o_1
X_1305_ net150 _1143_ VGND VGND VDPWR VDPWR dig_ctrl_inst.latch_mem_inst.data_we\[9\]
+ sky130_fd_sc_hd__and2_1
XPHY_EDGE_ROW_72_Left_150 VGND VGND VDPWR VDPWR sky130_fd_sc_hd__decap_3
X_1167_ dig_ctrl_inst.cpu_inst.instr\[7\] dig_ctrl_inst.cpu_inst.instr\[6\] net252
+ net253 VGND VGND VDPWR VDPWR _1015_ sky130_fd_sc_hd__or4b_4
Xdig_ctrl_inst.latch_mem_inst.gen_words\[9\].gen_latches\[1\].p_latch net232 dig_ctrl_inst.latch_mem_inst.gclk\[9\]
+ VGND VGND VDPWR VDPWR dig_ctrl_inst.latch_mem_inst.RAM\[9\]\[1\] sky130_fd_sc_hd__dlxtp_1
XFILLER_0_19_169 VGND VGND VDPWR VDPWR sky130_fd_sc_hd__decap_3
XTAP_TAPCELL_ROW_73_605 VGND VDPWR sky130_fd_sc_hd__tapvpwrvgnd_1
XTAP_TAPCELL_ROW_38_392 VGND VDPWR sky130_fd_sc_hd__tapvpwrvgnd_1
XTAP_TAPCELL_ROW_21_292 VGND VDPWR sky130_fd_sc_hd__tapvpwrvgnd_1
XFILLER_0_21_334 VGND VGND VDPWR VDPWR sky130_fd_sc_hd__fill_2
X_2070_ _0761_ _0762_ _1068_ VGND VGND VDPWR VDPWR _0763_ sky130_fd_sc_hd__mux2_1
XPHY_EDGE_ROW_3_Left_81 VGND VGND VDPWR VDPWR sky130_fd_sc_hd__decap_3
XFILLER_0_8_328 VGND VGND VDPWR VDPWR sky130_fd_sc_hd__fill_1
XFILLER_0_71_223 VGND VGND VDPWR VDPWR sky130_fd_sc_hd__fill_1
X_1854_ dig_ctrl_inst.latch_mem_inst.RAM\[13\]\[4\] _0114_ _0129_ dig_ctrl_inst.latch_mem_inst.RAM\[26\]\[4\]
+ VGND VGND VDPWR VDPWR _0562_ sky130_fd_sc_hd__a22o_1
X_1923_ dig_ctrl_inst.latch_mem_inst.RAM\[2\]\[6\] net121 net112 VGND VGND VDPWR VDPWR
+ _0629_ sky130_fd_sc_hd__and3_2
X_1785_ dig_ctrl_inst.latch_mem_inst.RAM\[33\]\[3\] _0135_ _0491_ _0492_ _0493_ VGND
+ VGND VDPWR VDPWR _0494_ sky130_fd_sc_hd__a2111o_1
X_2406_ clknet_leaf_5_clk _0014_ net146 VGND VGND VDPWR VDPWR dig_ctrl_inst.cpu_inst.port_o\[3\]
+ sky130_fd_sc_hd__dfrtp_1
XFILLER_0_24_183 VGND VGND VDPWR VDPWR sky130_fd_sc_hd__fill_2
XFILLER_0_24_194 VGND VGND VDPWR VDPWR sky130_fd_sc_hd__fill_2
X_2337_ dig_ctrl_inst.cpu_inst.port_o\[1\] net357 _0986_ VGND VGND VDPWR VDPWR _0088_
+ sky130_fd_sc_hd__mux2_1
XFILLER_0_34_3 VGND VGND VDPWR VDPWR sky130_fd_sc_hd__decap_6
XTAP_TAPCELL_ROW_27_329 VGND VDPWR sky130_fd_sc_hd__tapvpwrvgnd_1
X_1219_ dig_ctrl_inst.cpu_inst.r0\[0\] _1019_ _1065_ _1066_ VGND VGND VDPWR VDPWR
+ _1067_ sky130_fd_sc_hd__o22a_2
X_2268_ _0836_ _0908_ _0953_ VGND VGND VDPWR VDPWR _0954_ sky130_fd_sc_hd__o21a_1
X_2199_ _0836_ _0837_ _0887_ _0770_ _0886_ VGND VGND VDPWR VDPWR _0888_ sky130_fd_sc_hd__o221a_1
XTAP_TAPCELL_ROW_35_373 VGND VDPWR sky130_fd_sc_hd__tapvpwrvgnd_1
XFILLER_0_15_150 VGND VGND VDPWR VDPWR sky130_fd_sc_hd__fill_1
Xdig_ctrl_inst.latch_mem_inst.gen_gclk\[53\].clock_gate clknet_leaf_17_clk dig_ctrl_inst.latch_mem_inst.data_we\[53\]
+ VGND VGND VDPWR VDPWR dig_ctrl_inst.latch_mem_inst.gen_gclk\[53\]._gclk sky130_fd_sc_hd__dlclkp_1
XFILLER_0_22_109 VGND VGND VDPWR VDPWR sky130_fd_sc_hd__decap_6
Xhold63 dig_ctrl_inst.spi_receiver_inst.spi_mosi_sync VGND VGND VDPWR VDPWR net345
+ sky130_fd_sc_hd__dlygate4sd3_1
Xhold52 dig_ctrl_inst.synchronizer_port_i_inst\[2\].pipe\[0\] VGND VGND VDPWR VDPWR
+ net334 sky130_fd_sc_hd__dlygate4sd3_1
Xhold74 dig_ctrl_inst.spi_data_i\[5\] VGND VGND VDPWR VDPWR net356 sky130_fd_sc_hd__dlygate4sd3_1
Xhold41 dig_ctrl_inst.latch_mem_inst.wdata\[4\] VGND VGND VDPWR VDPWR net323 sky130_fd_sc_hd__dlygate4sd3_1
XFILLER_0_26_29 VGND VGND VDPWR VDPWR sky130_fd_sc_hd__fill_1
Xhold96 dig_ctrl_inst.cpu_inst.r2\[4\] VGND VGND VDPWR VDPWR net378 sky130_fd_sc_hd__dlygate4sd3_1
Xhold85 dig_ctrl_inst.cpu_inst.r1\[1\] VGND VGND VDPWR VDPWR net367 sky130_fd_sc_hd__dlygate4sd3_1